 &NAMSNO
  idim=XRESX, jdim=XRESX, lsoil=4, NUM_TILES=1,
  iy=YYYY, im=MM, id=DD, ih=HHX, fh=0, IVEGSRC=1, isot=1,
  SNOW_DA_TYPE=XDAMODX, PERCENT_OBS_WITHHELD=0,
  horz_len_scale=55.,ver_len_scale=800.,obs_tolerance=5.,max_ele_diff=1500.,
  obs_srch_rad=XRADIX,bkgst_srch_rad=XBKSRX,max_num_nearStn=XMAXOBSX,exclude_obs_at_grid=.false.,
  max_num_nearIMS=1,ims_max_ele=111500.,num_subgrd_ims_cels=49,
  stdev_obsv_depth=40, stdev_obsv_sncov=80, stdev_back=40,
  ENS_SIZE=20,rcov_localize=.false.,ens_inflate=.false.,
  rcov_correlated=.false., bcov_localize=.false., BBcov_localize=.false.,
  add_static_bcov=.false., static_stdev_back=30.0,
  assim_SnowPack_obs=.true.,assim_SnowCov_obs=.false.,ims_correlated=.false., resample_scf=.false.,
  STN_OBS_PREFIX="/scratch1/NCEPDEV/da/Tseganeh.Gichamo/land-offline_workflow/GHCN/EVEXC/V5/ghcn_full_snwd_ioda_",
  STN_DIM_NAME="Location",STN_VAR_NAME="totalSnowDepth",STN_ELE_NAME="stationElevation",
  IMS_SNOWCOVER_PATH="/scratch2/BMC/gsienkf/Tseganeh.Gichamo/SnowObs/IMS/",
  IMS_INDEXES_PATH="/scratch2/BMC/gsienkf/Tseganeh.Gichamo/SnowObs/IMS_INDEXES/",
  restart_prefix="/scratch1/NCEPDEV/da/Tseganeh.Gichamo/land-offline_workflow/",
  increment_prefix="/scratch1/NCEPDEV/da/Tseganeh.Gichamo/land-offline_workflow/output/letkf/CXRESX/restart/", 
  openloop_prefix="/scratch1/NCEPDEV/da/Tseganeh.Gichamo/land-offline_workflow/OL/HR23/",
  static_filename="/scratch1/NCEPDEV/da/Tseganeh.Gichamo/STATIC/C768/ufs-land_C768_static_fields.nc",
  output_prefix="/scratch1/NCEPDEV/da/Tseganeh.Gichamo/land-offline_workflow/snoanl_jletkf_bil.",
  print_debg_info=.false., PRINTRANK=0,
  lsm_type=2, snowUpdateOpt=3, 
  begloc=1, endloc=1067297,
  read_obsback_error=.false., 
  inp_file_obsErr="/scratch2/BMC/gsienkf/Tseganeh.Gichamo/ufsoi/test2/restart/C768/c768_k1_noyearlymin_obsbackerr.nc",
  dim_name_obsErr="nlocs", var_name_obsErr="obsErr1_GHCN", var_name_backErr="backErr1_NOAHMP",
  read_weighted_back=.false., inp_file_backEsmfWeights="/scratch2/BMC/gsienkf/Tseganeh.Gichamo/ufsoi/test2/restart/C768/SCRIP/C768_nstd_wts_ghcn_scrip_YYYYMMDD.nc", 
  only_hofx=.false.,
  regional_tile=.false.
 /
